IEEE 13 Bus with PV/IEEE13Nodeckt_VLN_Node.Txt

LINE-GROUND and LINE-LINE VOLTAGES BY BUS & NODE

Bus       Node    VLN (kV)   Angle      pu     Base kV    Node-Node   VLL (kV)  Angle      pu

SOURCEBUS 1       66.327 /_   29.9   0.99897   115.000        1-2      114.9 /_   59.9   0.99913
   -      2       66.339 /_  -90.1   0.99915   115.000        2-3     114.89 /_  -60.1   0.99901
   -      3       66.319 /_  149.9   0.99886   115.000        3-1     114.87 /_  179.9   0.99883
650 ..... 1       2.3712 /_    0.3   0.98728     4.160        1-2     4.1175 /_   30.3   0.98979
   -      2       2.3796 /_ -119.8   0.99075     4.160        2-3     4.1124 /_  -89.8   0.98856
   -      3       2.3721 /_  120.3   0.98763     4.160        3-1     4.1072 /_  150.3   0.98731
RG60 .... 1       2.5428 /_    0.4    1.0587     4.160        1-2     4.3791 /_   30.1    1.0527
   -      2        2.509 /_ -119.8    1.0446     4.160        2-3     4.3725 /_  -89.5    1.0511
   -      3       2.5438 /_  120.3    1.0591     4.160        3-1     4.4045 /_  150.4    1.0588
633 ..... 1       2.4549 /_   -1.5    1.0221     4.160        1-2     4.2731 /_   29.0    1.0272
   -      2       2.4912 /_ -121.0    1.0372     4.160        2-3     4.2723 /_  -91.3     1.027
   -      3       2.4444 /_  119.1    1.0178     4.160        3-1     4.2553 /_  148.8    1.0229
634 ..... 1      0.27833 /_   -2.0    1.0044     0.480        1-2    0.48512 /_   28.6    1.0107
   -      2      0.28364 /_ -121.4    1.0235     0.480        2-3    0.48634 /_  -91.7    1.0132
   -      3      0.27817 /_  118.7    1.0038     0.480        3-1    0.48369 /_  148.3    1.0077
632 ..... 1       2.4603 /_   -1.5    1.0244     4.160        1-2      4.281 /_   29.0    1.0291
   -      2       2.4946 /_ -121.0    1.0387     4.160        2-3       4.28 /_  -91.3    1.0288
   -      3       2.4491 /_  119.1    1.0197     4.160        3-1      4.263 /_  148.9    1.0248
671 ..... 1       2.3971 /_   -3.5   0.99805     4.160        1-2      4.204 /_   28.3    1.0106
   -      2       2.5105 /_ -121.4    1.0453     4.160        2-3     4.2395 /_  -92.7    1.0191
   -      3       2.3686 /_  118.0   0.98618     4.160        3-1      4.158 /_  147.4   0.99952
680 ..... 1       2.3971 /_   -3.5   0.99805     4.160        1-2      4.204 /_   28.3    1.0106
   -      2       2.5105 /_ -121.4    1.0453     4.160        2-3     4.2395 /_  -92.7    1.0191
   -      3       2.3686 /_  118.0   0.98618     4.160        3-1      4.158 /_  147.4   0.99952
645 ..... 2       2.4783 /_ -121.1    1.0319     4.160        2-3     4.2598 /_  -91.3     1.024
   -      3       2.4458 /_  119.1    1.0183     4.160
646 ..... 2       2.4753 /_ -121.2    1.0306     4.160        2-3     4.2523 /_  -91.3    1.0222
   -      3       2.4423 /_  119.1    1.0169     4.160
684 ..... 1       2.3936 /_   -3.6   0.99658     4.160
   -      3       2.3635 /_  117.9   0.98405     4.160        3-1     4.1502 /_  147.4   0.99765
611 ..... 3       2.3584 /_  117.8   0.98193     4.160
652 ..... 1       2.3833 /_   -3.5   0.99229     4.160
692 ..... 1       2.3971 /_   -3.5   0.99804     4.160        1-2      4.204 /_   28.3    1.0106
   -      2       2.5105 /_ -121.4    1.0453     4.160        2-3     4.2395 /_  -92.7    1.0191
   -      3       2.3685 /_  118.0   0.98617     4.160        3-1      4.158 /_  147.4   0.99952
675 ..... 1       2.3844 /_   -3.7   0.99277     4.160        1-2     4.1946 /_   28.3    1.0083
   -      2       2.5134 /_ -121.5    1.0465     4.160        2-3     4.2351 /_  -92.8    1.0181
   -      3       2.3637 /_  118.0   0.98415     4.160        3-1     4.1464 /_  147.3   0.99674
